Version 4
SHEET 1 1868 4520
WIRE 32 -64 -32 -64
WIRE 192 -64 112 -64
WIRE 544 32 544 16
WIRE -144 96 -160 96
WIRE -32 96 -32 -64
WIRE -32 96 -64 96
WIRE 0 96 -32 96
WIRE 96 96 96 80
WIRE -160 112 -160 96
WIRE 192 128 192 -64
WIRE 192 128 160 128
WIRE 336 128 192 128
WIRE 544 128 544 112
WIRE 544 128 480 128
WIRE 480 144 480 128
WIRE 544 144 544 128
WIRE -144 160 -272 160
WIRE -32 160 -64 160
WIRE 0 160 -32 160
WIRE -272 192 -272 160
WIRE 336 192 336 128
WIRE 32 240 32 192
WIRE 96 240 96 160
WIRE 544 240 544 224
WIRE 96 272 96 240
WIRE -272 304 -272 272
WIRE 336 304 336 272
WIRE -272 416 -272 384
FLAG 480 144 0
FLAG 544 16 +Vs
FLAG 544 240 -Vs
FLAG 96 80 +Vs
FLAG -160 112 0
FLAG 96 272 -Vs
FLAG -272 416 0
FLAG 336 304 0
FLAG -272 160 in
FLAG 336 128 out
FLAG -32 96 -IN
FLAG -32 160 +IN
SYMBOL AutoGenerated\\AD8021 80 128 R0
WINDOW 0 -65 -109 Bottom 2
WINDOW 3 -36 -112 Top 2
SYMATTR InstName U1
SYMBOL voltage 544 16 R0
WINDOW 123 0 0 Left 0
WINDOW 39 0 0 Left 0
SYMATTR InstName +VS
SYMATTR Value 5V
SYMBOL voltage 544 128 R0
SYMATTR InstName -VS
SYMATTR Value 5V
SYMBOL res 128 -80 R90
WINDOW 0 -26 55 VBottom 2
WINDOW 3 -28 53 VTop 2
SYMATTR InstName RF
SYMATTR Value 10k
SYMBOL res -48 80 R90
WINDOW 0 -29 56 VBottom 2
WINDOW 3 -28 56 VTop 2
SYMATTR InstName RN
SYMATTR Value 10k
SYMBOL res -48 144 R90
WINDOW 0 62 58 VBottom 2
WINDOW 3 63 58 VTop 2
SYMATTR InstName RP
SYMATTR Value 4.99k
SYMBOL voltage -272 288 R0
WINDOW 123 24 124 Left 2
WINDOW 39 0 0 Left 0
SYMATTR InstName Vin
SYMATTR Value SINE(0 10m 1k 0 0 0 0)
SYMATTR Value2 AC 10m 0
SYMBOL res -288 176 R0
SYMATTR InstName RG
SYMATTR Value 500
SYMBOL res 320 176 R0
SYMATTR InstName RL
SYMATTR Value 1k
SYMBOL cap 96 224 R90
WINDOW 0 0 32 VBottom 2
WINDOW 3 32 32 VTop 2
SYMATTR InstName Cc
SYMATTR Value 7p
TEXT -280 504 Left 2 !.op
TEXT -280 528 Left 2 !.ac dec 10 1 10
TEXT -280 560 Left 2 !.option noopiter
